Version 4
SHEET 1 2052 736
WIRE 256 96 240 96
WIRE 624 96 608 96
WIRE 1056 96 1040 96
WIRE 1168 96 1152 96
WIRE 1280 96 1264 96
WIRE -480 128 -512 128
WIRE -448 128 -480 128
WIRE 240 128 240 96
WIRE 288 128 240 128
WIRE 608 128 608 96
WIRE 656 128 608 128
WIRE 1040 128 1040 96
WIRE 1264 128 1264 96
WIRE -512 160 -512 128
WIRE -448 160 -448 128
WIRE 1152 160 1152 96
WIRE 1200 160 1152 160
WIRE -272 176 -288 176
WIRE -80 192 -176 192
WIRE 128 192 -80 192
WIRE -288 208 -288 176
WIRE 128 240 128 192
WIRE 160 240 128 240
WIRE 240 240 240 128
WIRE 320 240 304 240
WIRE 416 240 400 240
WIRE 528 240 416 240
WIRE 608 240 608 128
WIRE 688 240 672 240
WIRE 896 240 880 240
WIRE 1152 240 1152 160
WIRE -512 256 -512 240
WIRE -480 256 -512 256
WIRE -448 256 -448 240
WIRE -448 256 -480 256
WIRE -176 256 -176 192
WIRE -80 256 -80 192
WIRE 1120 256 976 256
WIRE -480 272 -480 256
WIRE 304 272 304 240
WIRE 304 272 288 272
WIRE 336 272 336 240
WIRE 336 272 304 272
WIRE 672 272 672 240
WIRE 672 272 656 272
WIRE 688 272 672 272
WIRE 768 272 752 272
WIRE 784 272 768 272
WIRE 880 272 880 240
WIRE 880 272 864 272
WIRE 976 272 976 256
WIRE 976 272 880 272
WIRE 1264 272 1264 208
WIRE 1264 272 1184 272
WIRE 1296 272 1264 272
WIRE 1040 288 1040 208
WIRE 1120 288 1040 288
WIRE 160 304 128 304
WIRE 416 304 416 240
WIRE 528 304 480 304
WIRE 880 304 880 272
WIRE 976 304 976 272
WIRE -288 320 -288 288
WIRE 1152 320 1152 304
WIRE 240 336 240 304
WIRE 608 336 608 304
WIRE -448 352 -512 352
WIRE -512 368 -512 352
WIRE -448 368 -448 352
WIRE 1040 368 1040 288
WIRE 1072 368 1040 368
WIRE 1264 368 1264 272
WIRE 1264 368 1152 368
WIRE -176 400 -176 336
WIRE -80 400 -80 336
WIRE -80 400 -176 400
WIRE -64 400 -80 400
WIRE 16 400 0 400
WIRE 128 400 128 304
WIRE 128 400 96 400
WIRE 176 400 128 400
WIRE 304 400 304 272
WIRE 304 400 256 400
WIRE 480 400 480 304
WIRE 592 400 480 400
WIRE 768 400 768 272
WIRE 768 400 672 400
WIRE 480 416 480 400
WIRE 880 416 880 368
WIRE 928 416 880 416
WIRE 976 416 976 384
WIRE 976 416 928 416
WIRE 1040 416 1040 368
WIRE -512 464 -512 448
WIRE -480 464 -512 464
WIRE -448 464 -448 448
WIRE -448 464 -480 464
WIRE -480 480 -480 464
WIRE -192 512 -208 512
WIRE -80 512 -80 400
WIRE -80 512 -112 512
WIRE 416 512 416 384
WIRE 416 512 -80 512
WIRE 480 512 480 496
WIRE 480 512 416 512
WIRE 928 512 928 416
WIRE 1040 512 1040 496
FLAG -208 512 0
FLAG -288 320 0
FLAG 240 336 0
FLAG 608 336 0
FLAG 1152 320 0
FLAG 1296 272 Vout
FLAG 304 240 Vstage1
FLAG -288 176 Vcc
FLAG 1040 96 Vcc
FLAG 1264 96 Vcc
FLAG 608 96 Vcc
FLAG 1152 96 Vcc
FLAG 1040 288 Vcomp
FLAG 896 240 Vcap
FLAG -480 272 0
FLAG -480 128 Vswitch
FLAG -480 480 0
FLAG -80 192 Vsense
FLAG 656 192 0
FLAG 288 192 0
FLAG 1200 224 0
FLAG 240 96 Vcc
FLAG 1040 512 0
FLAG 672 240 Vstage2
FLAG 928 512 0
SYMBOL res -96 240 R0
SYMATTR InstName R1
SYMATTR Value 10
SYMBOL voltage -96 512 R90
WINDOW 123 0 0 Left 0
WINDOW 39 63 -20 VRight 2
SYMATTR SpiceLine Rser=0.2 Cpar=10u
SYMATTR InstName V1
SYMATTR Value 2.5
SYMBOL MCP6001 160 272 R0
WINDOW 3 6 -114 Top 2
SYMATTR InstName U1
SYMBOL voltage -288 192 R0
WINDOW 123 0 0 Left 0
WINDOW 39 -59 157 Left 2
SYMATTR SpiceLine Rser=.2 Cpar=10u
SYMATTR InstName V2
SYMATTR Value 5
SYMBOL res 112 384 R90
WINDOW 0 0 56 VBottom 2
WINDOW 3 32 56 VTop 2
SYMATTR InstName R2
SYMATTR Value 10K
SYMBOL res 272 384 R90
WINDOW 0 0 56 VBottom 2
WINDOW 3 32 56 VTop 2
SYMATTR InstName R3
SYMATTR Value 680K
SYMBOL cap 0 384 R90
WINDOW 0 0 32 VBottom 2
WINDOW 3 32 32 VTop 2
SYMATTR InstName C1
SYMATTR Value 1µ
SYMBOL MCP6001 528 272 R0
WINDOW 3 5 -117 Top 2
SYMATTR InstName U2
SYMBOL cap 400 224 R90
WINDOW 0 0 32 VBottom 2
WINDOW 3 32 32 VTop 2
SYMATTR InstName C2
SYMATTR Value 1µ
SYMBOL res 400 288 R0
SYMATTR InstName R4
SYMATTR Value 56K
SYMBOL res 464 400 R0
SYMATTR InstName R7
SYMATTR Value 15K
SYMBOL res 688 384 R90
WINDOW 0 0 56 VBottom 2
WINDOW 3 32 56 VTop 2
SYMATTR InstName R6
SYMATTR Value 1Meg
SYMBOL polcap 864 304 R0
WINDOW 3 24 56 Left 2
SYMATTR Value 100µ
SYMATTR InstName C3
SYMATTR Description Capacitor
SYMATTR Type cap
SYMATTR SpiceLine V=12.5 Irms=2.21565 Rser=0.055 Lser=0
SYMBOL diode 688 288 R270
WINDOW 0 32 32 VTop 2
WINDOW 3 0 32 VBottom 2
SYMATTR InstName D1
SYMATTR Value 1N4148
SYMBOL res 960 288 R0
SYMATTR InstName R5
SYMATTR Value 47K
SYMBOL res 880 256 R90
WINDOW 0 0 56 VBottom 2
WINDOW 3 32 56 VTop 2
SYMATTR InstName R8
SYMATTR Value 470
SYMBOL res 1024 112 R0
SYMATTR InstName R9
SYMATTR Value 12K
SYMBOL res 1248 112 R0
SYMATTR InstName R10
SYMATTR Value 22K
SYMBOL res 1168 352 R90
WINDOW 0 0 56 VBottom 2
WINDOW 3 32 56 VTop 2
SYMATTR InstName R11
SYMATTR Value 27K
SYMBOL res 1024 400 R0
SYMATTR InstName R12
SYMATTR Value 56K
SYMBOL Comparators\\MAX9095 1152 272 R0
WINDOW 0 -29 -50 Left 2
SYMATTR InstName U3
SYMBOL voltage -512 144 R0
WINDOW 3 -65 159 Left 2
WINDOW 123 0 0 Left 0
WINDOW 39 0 0 Left 0
SYMATTR Value PULSE(0 1 0.25 0.001 0.001 2 7)
SYMATTR InstName V3
SYMBOL res -464 144 R0
SYMATTR InstName R13
SYMATTR Value 1K
SYMBOL bi -176 256 R0
WINDOW 3 -99 170 Left 2
SYMATTR Value I=V(Vswitch) * I(I1)
SYMATTR InstName B1
SYMBOL current -512 368 R0
WINDOW 123 0 0 Left 0
WINDOW 39 0 0 Left 0
WINDOW 3 -30 137 Left 2
SYMATTR Value SINE(0 0.0001 60)
SYMATTR InstName I1
SYMBOL res -464 352 R0
SYMATTR InstName R14
SYMATTR Value 1K
SYMBOL cap 640 128 R0
SYMATTR InstName C4
SYMATTR Value 0.1µ
SYMBOL cap 272 128 R0
SYMATTR InstName C5
SYMATTR Value 0.1µ
SYMBOL cap 1184 160 R0
SYMATTR InstName C6
SYMATTR Value 0.1µ
TEXT -224 80 Left 2 !.tran 0 10 0 startup
