Version 4
SHEET 1 2052 736
WIRE 160 64 144 64
WIRE 144 96 144 64
WIRE 192 96 144 96
WIRE 512 96 496 96
WIRE 960 96 944 96
WIRE 1056 96 1040 96
WIRE 1168 96 1152 96
WIRE -480 128 -512 128
WIRE -448 128 -480 128
WIRE -64 128 -80 128
WIRE 496 128 496 96
WIRE 544 128 496 128
WIRE 944 128 944 96
WIRE 1152 128 1152 96
WIRE -512 160 -512 128
WIRE -448 160 -448 128
WIRE -272 160 -288 160
WIRE -80 160 -80 128
WIRE -80 160 -176 160
WIRE 32 160 -80 160
WIRE 1040 160 1040 96
WIRE 1088 160 1040 160
WIRE -288 192 -288 160
WIRE 32 208 32 160
WIRE 64 208 32 208
WIRE 144 208 144 96
WIRE 224 208 208 208
WIRE -176 224 -176 160
WIRE -80 224 -80 160
WIRE 208 240 208 208
WIRE 208 240 192 240
WIRE 224 240 208 240
WIRE 304 240 288 240
WIRE 416 240 304 240
WIRE 496 240 496 128
WIRE 576 240 560 240
WIRE 784 240 768 240
WIRE 1040 240 1040 160
WIRE -512 256 -512 240
WIRE -480 256 -512 256
WIRE -448 256 -448 240
WIRE -448 256 -480 256
WIRE 1008 256 864 256
WIRE -480 272 -480 256
WIRE 64 272 32 272
WIRE 304 272 304 240
WIRE 560 272 560 240
WIRE 560 272 544 272
WIRE 576 272 560 272
WIRE 656 272 640 272
WIRE 672 272 656 272
WIRE 768 272 768 240
WIRE 768 272 752 272
WIRE 864 272 864 256
WIRE 864 272 768 272
WIRE 1152 272 1152 208
WIRE 1152 272 1072 272
WIRE 1184 272 1152 272
WIRE 944 288 944 208
WIRE 1008 288 944 288
WIRE -288 304 -288 272
WIRE 144 304 144 272
WIRE 416 304 368 304
WIRE 768 304 768 272
WIRE 864 304 864 272
WIRE 1040 320 1040 304
WIRE 496 336 496 304
WIRE -448 352 -512 352
WIRE -512 368 -512 352
WIRE -448 368 -448 352
WIRE -240 368 -256 368
WIRE -176 368 -176 304
WIRE -80 368 -80 304
WIRE -80 368 -176 368
WIRE -64 368 -80 368
WIRE 32 368 32 272
WIRE 32 368 16 368
WIRE 80 368 32 368
WIRE 208 368 208 240
WIRE 208 368 160 368
WIRE 368 368 368 304
WIRE 544 368 368 368
WIRE 656 368 656 272
WIRE 656 368 624 368
WIRE -256 384 -256 368
WIRE 368 384 368 368
WIRE 944 384 944 288
WIRE 1008 384 944 384
WIRE 1152 384 1152 272
WIRE 1152 384 1088 384
WIRE 768 416 768 368
WIRE 816 416 768 416
WIRE 864 416 864 384
WIRE 864 416 816 416
WIRE 944 416 944 384
WIRE -160 448 -176 448
WIRE -512 464 -512 448
WIRE -480 464 -512 464
WIRE -448 464 -448 448
WIRE -448 464 -480 464
WIRE -480 480 -480 464
WIRE -256 480 -256 464
WIRE -256 480 -288 480
WIRE -176 480 -176 448
WIRE -176 480 -256 480
WIRE -80 480 -80 368
WIRE -80 480 -176 480
WIRE 304 480 304 352
WIRE 304 480 -80 480
WIRE 368 480 368 464
WIRE 368 480 304 480
WIRE -288 512 -288 480
WIRE -80 512 -80 480
WIRE 816 512 816 416
WIRE 944 512 944 496
WIRE -80 592 -80 576
FLAG -288 304 0
FLAG 144 304 0
FLAG 496 336 0
FLAG 1040 320 0
FLAG 1184 272 Vout
FLAG 208 208 Vstage1
FLAG -288 160 Vcc
FLAG 944 96 Vcc
FLAG 1152 96 Vcc
FLAG 496 96 Vcc
FLAG 1040 96 Vcc
FLAG 944 288 Vcomp
FLAG 784 240 Vcap
FLAG -480 272 0
FLAG -480 128 Vswitch
FLAG -480 480 0
FLAG -80 128 Vsense
FLAG 544 192 0
FLAG 192 160 0
FLAG 1088 224 0
FLAG 144 64 Vcc
FLAG 944 512 0
FLAG 560 240 Vstage2
FLAG 816 512 0
FLAG -80 592 0
FLAG -256 544 0
FLAG -256 368 Vcc
FLAG -176 448 Vref
SYMBOL res -96 208 R0
SYMATTR InstName R1
SYMATTR Value 10
SYMBOL MCP6001 64 240 R0
WINDOW 3 6 -114 Top 2
SYMATTR InstName U1
SYMBOL voltage -288 176 R0
WINDOW 123 0 0 Left 0
WINDOW 39 -66 -49 Left 2
SYMATTR SpiceLine Rser=.2 Cpar=10u
SYMATTR InstName V2
SYMATTR Value 5
SYMBOL res 32 352 R90
WINDOW 0 0 56 VBottom 2
WINDOW 3 32 56 VTop 2
SYMATTR InstName R2
SYMATTR Value 68K
SYMBOL res 176 352 R90
WINDOW 0 0 56 VBottom 2
WINDOW 3 32 56 VTop 2
SYMATTR InstName R3
SYMATTR Value 680K
SYMBOL MCP6001 416 272 R0
WINDOW 3 5 -117 Top 2
SYMATTR InstName U2
SYMBOL cap 288 224 R90
WINDOW 0 0 32 VBottom 2
WINDOW 3 32 32 VTop 2
SYMATTR InstName C2
SYMATTR Value 1µ
SYMBOL res 288 256 R0
SYMATTR InstName R4
SYMATTR Value 56K
SYMBOL res 352 368 R0
SYMATTR InstName R7
SYMATTR Value 91K
SYMBOL res 640 352 R90
WINDOW 0 0 56 VBottom 2
WINDOW 3 38 53 VTop 2
SYMATTR InstName R6
SYMATTR Value 1Meg
SYMBOL polcap 752 304 R0
WINDOW 3 24 56 Left 2
SYMATTR Value 100µ
SYMATTR InstName C3
SYMATTR Description Capacitor
SYMATTR Type cap
SYMATTR SpiceLine V=12.5 Irms=2.21565 Rser=0.055 Lser=0
SYMBOL diode 576 288 R270
WINDOW 0 32 32 VTop 2
WINDOW 3 0 32 VBottom 2
SYMATTR InstName D1
SYMATTR Value 1N4148
SYMBOL res 848 288 R0
SYMATTR InstName R5
SYMATTR Value 47K
SYMBOL res 768 256 R90
WINDOW 0 0 56 VBottom 2
WINDOW 3 32 56 VTop 2
SYMATTR InstName R8
SYMATTR Value 470
SYMBOL res 928 112 R0
SYMATTR InstName R9
SYMATTR Value 12K
SYMBOL res 1136 112 R0
SYMATTR InstName R10
SYMATTR Value 22K
SYMBOL res 1104 368 R90
WINDOW 0 0 56 VBottom 2
WINDOW 3 32 56 VTop 2
SYMATTR InstName R11
SYMATTR Value 27K
SYMBOL res 928 400 R0
SYMATTR InstName R12
SYMATTR Value 56K
SYMBOL Comparators\\MAX9095 1040 272 R0
WINDOW 0 -29 -50 Left 2
SYMATTR InstName U3
SYMBOL voltage -512 144 R0
WINDOW 3 -65 159 Left 2
WINDOW 123 0 0 Left 0
WINDOW 39 0 0 Left 0
SYMATTR Value PULSE(0 1 0.25 0.001 0.001 2 7)
SYMATTR InstName V3
SYMBOL res -464 144 R0
SYMATTR InstName R13
SYMATTR Value 1K
SYMBOL bi -176 224 R0
WINDOW 3 51 -46 VRight 2
SYMATTR Value I=V(Vswitch) * I(I1)
SYMATTR InstName B1
SYMBOL current -512 368 R0
WINDOW 123 0 0 Left 0
WINDOW 39 0 0 Left 0
WINDOW 3 -30 137 Left 2
SYMATTR Value SINE(0 0.002 60)
SYMATTR InstName I1
SYMBOL res -464 352 R0
SYMATTR InstName R14
SYMATTR Value 1K
SYMBOL cap 528 128 R0
SYMATTR InstName C4
SYMATTR Value 0.1µ
SYMBOL cap 176 96 R0
SYMATTR InstName C5
SYMATTR Value 0.1µ
SYMBOL cap 1072 160 R0
SYMATTR InstName C6
SYMATTR Value 0.1µ
SYMBOL cap -96 512 R0
SYMATTR InstName C1
SYMATTR Value 10µ
SYMBOL ZZZ\\REF\\TL431 -272 480 R0
SYMATTR InstName U4
SYMBOL res -272 368 R0
SYMATTR InstName R15
SYMATTR Value 220
TEXT -400 80 Left 2 !.tran 0 10 0 startup
